!-Generator IDFEditor 1.29a
!-Option OriginalOrderTop UseSpecialFormat
!-NOTE: All comments with '!-' are ignored by the IDFEditor and are generated automatically.
!-      Use '!' comments if they need to be retained when using the IDFEditor.

  Output:Variable,*,Zone Air Temperature,Monthly,Office Occupancy 2;

  Output:Table:Monthly,
    Zone Temperature Report, !- Name
    2,                       !- Digits After Decimal
    Zone Mean Air Temperature,  !- Variable or Meter 1 Name
    SumOrAverage,            !- Aggregation Type for Variable or Meter 1
    Zone Mean Air Temperature,  !- Variable or Meter 2 Name
    Maximum,                 !- Aggregation Type for Variable or Meter 2
    Zone Mean Air Temperature,  !- Variable or Meter 3 Name
    Minimum,                 !- Aggregation Type for Variable or Meter 3
    Zone People Occupant Count,  !- Variable or Meter 4 Name
    HoursPositive,           !- Aggregation Type for Variable or Meter 4
    Zone Mean Air Temperature,  !- Variable or Meter 5 Name
    SumOrAverageDuringHoursShown,  !- Aggregation Type for Variable or Meter 5
    Zone Mean Air Temperature,  !- Variable or Meter 6 Name
    MaximumDuringHoursShown, !- Aggregation Type for Variable or Meter 6
    Zone Mean Air Temperature,  !- Variable or Meter 7 Name
    MinimumDuringHoursShown; !- Aggregation Type for Variable or Meter 7
! 
!   HVACTemplate:System:VAV,
!     VAV with Reheat,         !- Name
!     Office HVAC,             !- System Availability Schedule Name
!     autosize,                !- Supply Fan Maximum Flow Rate {m3/s}
!     autosize,                !- Supply Fan Minimum Flow Rate {m3/s}
!     0.7,                     !- Supply Fan Total Efficiency
!     1000,                    !- Supply Fan Delta Pressure {Pa}
!     0.9,                     !- Supply Fan Motor Efficiency
!     1,                       !- Supply Fan Motor in Air Stream Fraction
!     ChilledWater,            !- Cooling Coil Type
!     ,                        !- Cooling Coil Availability Schedule Name
!     ,                        !- Cooling Coil Setpoint Schedule Name
!     13,                      !- Cooling Coil Design Setpoint {C}
!     None,                    !- Heating Coil Type
!     ,                        !- Heating Coil Availability Schedule Name
!     ,                        !- Heating Coil Setpoint Schedule Name
!     10.0,                    !- Heating Coil Design Setpoint {C}
!     0.8,                     !- Gas Heating Coil Efficiency
!     ,                        !- Gas Heating Coil Parasitic Electric Load {W}
!     None,                    !- Preheat Coil Type
!     ,                        !- Preheat Coil Availability Schedule Name
!     ,                        !- Preheat Coil Setpoint Schedule Name
!     7.2,                     !- Preheat Coil Design Setpoint {C}
!     0.8,                     !- Gas Preheat Coil Efficiency
!     ,                        !- Gas Preheat Coil Parasitic Electric Load {W}
!     autosize,                !- Maximum Outdoor Air Flow Rate {m3/s}
!     autosize,                !- Minimum Outdoor Air Flow Rate {m3/s}
!     ProportionalMinimum,     !- Minimum Outdoor Air Control Type
!     Office Minimum OA,       !- Minimum Outdoor Air Schedule Name
!     FixedDryBulb,            !- Economizer Type
!     NoLockout,               !- Economizer Lockout
!     ,                        !- Economizer Upper Temperature Limit {C}
!     ,                        !- Economizer Lower Temperature Limit {C}
!     ,                        !- Economizer Upper Enthalpy Limit {J/kg}
!     ,                        !- Economizer Maximum Limit Dewpoint Temperature {C}
!     ,                        !- Supply Plenum Name
!     PLENUM,                  !- Return Plenum Name
!     DrawThrough,             !- Supply Fan Placement
!     InletVaneDampers,        !- Supply Fan Part-Load Power Coefficients
!     StayOff,                 !- Night Cycle Control
!     ,                        !- Night Cycle Control Zone Name
!     None,                    !- Heat Recovery Type
!     0.7,                     !- Sensible Heat Recovery Effectiveness
!     0.65,                    !- Latent Heat Recovery Effectiveness
!     None,                    !- Cooling Coil Setpoint Reset Type
!     None,                    !- Heating Coil Setpoint Reset Type
!     None,                    !- Dehumidification Control Type
!     ,                        !- Dehumidification Control Zone Name
!     ,                        !- Dehumidification Setpoint {percent}
!     None,                    !- Humidifier Type
!     ,                        !- Humidifier Availability Schedule Name
!     ,                        !- Humidifier Rated Capacity {m3/s}
!     ,                        !- Humidifier Rated Electric Power {W}
!     ,                        !- Humidifier Control Zone Name
!     ,                        !- Humidifier Setpoint {percent}
!     NonCoincident,           !- Sizing Option
!     ,                        !- Return Fan
!     ,                        !- Return Fan Total Efficiency
!     ,                        !- Return Fan Delta Pressure {Pa}
!     ,                        !- Return Fan Motor Efficiency
!     ,                        !- Return Fan Motor in Air Stream Fraction
!     ;                        !- Return Fan Part-Load Power Coefficients
! 
!   HVACTemplate:Zone:VAV,
!     SOUTH PERIMETER,         !- Zone Name
!     VAV with Reheat,         !- Template VAV System Name
!     Office Thermostat,       !- Template Thermostat Name
!     autosize,                !- Supply Air Maximum Flow Rate {m3/s}
!     ,                        !- Zone Heating Sizing Factor
!     ,                        !- Zone Cooling Sizing Factor
!     Constant,                !- Zone Minimum Air Flow Input Method
!     0.2,                     !- Constant Minimum Air Flow Fraction
!     ,                        !- Fixed Minimum Air Flow Rate {m3/s}
!     ,                        !- Minimum Air Flow Fraction Schedule Name
!     Flow/Person,             !- Outdoor Air Method
!     0.00944,                 !- Outdoor Air Flow Rate per Person {m3/s}
!     0.0,                     !- Outdoor Air Flow Rate per Zone Floor Area {m3/s-m2}
!     0.0,                     !- Outdoor Air Flow Rate per Zone {m3/s}
!     HotWater,                !- Reheat Coil Type
!     ,                        !- Reheat Coil Availability Schedule Name
!     Reverse,                 !- Damper Heating Action
!     ,                        !- Maximum Flow per Zone Floor Area During Reheat {m3/s-m2}
!     ,                        !- Maximum Flow Fraction During Reheat
!     ,                        !- Maximum Reheat Air Temperature {C}
!     ,                        !- Design Specification Outdoor Air Object Name for Control
!     ,                        !- Supply Plenum Name
!     ,                        !- Return Plenum Name
!     None,                    !- Baseboard Heating Type
!     ,                        !- Baseboard Heating Availability Schedule Name
!     autosize,                !- Baseboard Heating Capacity {W}
!     SystemSupplyAirTemperature,  !- Zone Cooling Design Supply Air Temperature Input Method
!     ,                        !- Zone Cooling Design Supply Air Temperature {C}
!     ,                        !- Zone Cooling Design Supply Air Temperature Difference {deltaC}
!     SupplyAirTemperature,    !- Zone Heating Design Supply Air Temperature Input Method
!     50.0,                    !- Zone Heating Design Supply Air Temperature {C}
!     ;                        !- Zone Heating Design Supply Air Temperature Difference {deltaC}
! 
!   HVACTemplate:Zone:VAV,
!     EAST PERIMETER,          !- Zone Name
!     VAV with Reheat,         !- Template VAV System Name
!     Office Thermostat,       !- Template Thermostat Name
!     autosize,                !- Supply Air Maximum Flow Rate {m3/s}
!     ,                        !- Zone Heating Sizing Factor
!     ,                        !- Zone Cooling Sizing Factor
!     Constant,                !- Zone Minimum Air Flow Input Method
!     0.2,                     !- Constant Minimum Air Flow Fraction
!     ,                        !- Fixed Minimum Air Flow Rate {m3/s}
!     ,                        !- Minimum Air Flow Fraction Schedule Name
!     Flow/Person,             !- Outdoor Air Method
!     0.00944,                 !- Outdoor Air Flow Rate per Person {m3/s}
!     0.0,                     !- Outdoor Air Flow Rate per Zone Floor Area {m3/s-m2}
!     0.0,                     !- Outdoor Air Flow Rate per Zone {m3/s}
!     HotWater,                !- Reheat Coil Type
!     ,                        !- Reheat Coil Availability Schedule Name
!     Reverse,                 !- Damper Heating Action
!     ,                        !- Maximum Flow per Zone Floor Area During Reheat {m3/s-m2}
!     ,                        !- Maximum Flow Fraction During Reheat
!     ,                        !- Maximum Reheat Air Temperature {C}
!     ,                        !- Design Specification Outdoor Air Object Name for Control
!     ,                        !- Supply Plenum Name
!     ,                        !- Return Plenum Name
!     None,                    !- Baseboard Heating Type
!     ,                        !- Baseboard Heating Availability Schedule Name
!     autosize,                !- Baseboard Heating Capacity {W}
!     SystemSupplyAirTemperature,  !- Zone Cooling Design Supply Air Temperature Input Method
!     ,                        !- Zone Cooling Design Supply Air Temperature {C}
!     ,                        !- Zone Cooling Design Supply Air Temperature Difference {deltaC}
!     SupplyAirTemperature,    !- Zone Heating Design Supply Air Temperature Input Method
!     50.0,                    !- Zone Heating Design Supply Air Temperature {C}
!     ;                        !- Zone Heating Design Supply Air Temperature Difference {deltaC}
! 
!   HVACTemplate:Zone:VAV,
!     WEST PERIMETER,          !- Zone Name
!     VAV with Reheat,         !- Template VAV System Name
!     Office Thermostat,       !- Template Thermostat Name
!     autosize,                !- Supply Air Maximum Flow Rate {m3/s}
!     ,                        !- Zone Heating Sizing Factor
!     ,                        !- Zone Cooling Sizing Factor
!     Constant,                !- Zone Minimum Air Flow Input Method
!     0.2,                     !- Constant Minimum Air Flow Fraction
!     ,                        !- Fixed Minimum Air Flow Rate {m3/s}
!     ,                        !- Minimum Air Flow Fraction Schedule Name
!     Flow/Person,             !- Outdoor Air Method
!     0.00944,                 !- Outdoor Air Flow Rate per Person {m3/s}
!     0.0,                     !- Outdoor Air Flow Rate per Zone Floor Area {m3/s-m2}
!     0.0,                     !- Outdoor Air Flow Rate per Zone {m3/s}
!     HotWater,                !- Reheat Coil Type
!     ,                        !- Reheat Coil Availability Schedule Name
!     Reverse,                 !- Damper Heating Action
!     ,                        !- Maximum Flow per Zone Floor Area During Reheat {m3/s-m2}
!     ,                        !- Maximum Flow Fraction During Reheat
!     ,                        !- Maximum Reheat Air Temperature {C}
!     ,                        !- Design Specification Outdoor Air Object Name for Control
!     ,                        !- Supply Plenum Name
!     ,                        !- Return Plenum Name
!     None,                    !- Baseboard Heating Type
!     ,                        !- Baseboard Heating Availability Schedule Name
!     autosize,                !- Baseboard Heating Capacity {W}
!     SystemSupplyAirTemperature,  !- Zone Cooling Design Supply Air Temperature Input Method
!     ,                        !- Zone Cooling Design Supply Air Temperature {C}
!     ,                        !- Zone Cooling Design Supply Air Temperature Difference {deltaC}
!     SupplyAirTemperature,    !- Zone Heating Design Supply Air Temperature Input Method
!     50.0,                    !- Zone Heating Design Supply Air Temperature {C}
!     ;                        !- Zone Heating Design Supply Air Temperature Difference {deltaC}
! 
!   HVACTemplate:Zone:VAV,
!     CORE,                    !- Zone Name
!     VAV with Reheat,         !- Template VAV System Name
!     Office Thermostat,       !- Template Thermostat Name
!     autosize,                !- Supply Air Maximum Flow Rate {m3/s}
!     ,                        !- Zone Heating Sizing Factor
!     ,                        !- Zone Cooling Sizing Factor
!     Constant,                !- Zone Minimum Air Flow Input Method
!     0.2,                     !- Constant Minimum Air Flow Fraction
!     ,                        !- Fixed Minimum Air Flow Rate {m3/s}
!     ,                        !- Minimum Air Flow Fraction Schedule Name
!     Flow/Person,             !- Outdoor Air Method
!     0.00944,                 !- Outdoor Air Flow Rate per Person {m3/s}
!     0.0,                     !- Outdoor Air Flow Rate per Zone Floor Area {m3/s-m2}
!     0.0,                     !- Outdoor Air Flow Rate per Zone {m3/s}
!     HotWater,                !- Reheat Coil Type
!     ,                        !- Reheat Coil Availability Schedule Name
!     Reverse,                 !- Damper Heating Action
!     ,                        !- Maximum Flow per Zone Floor Area During Reheat {m3/s-m2}
!     ,                        !- Maximum Flow Fraction During Reheat
!     ,                        !- Maximum Reheat Air Temperature {C}
!     ,                        !- Design Specification Outdoor Air Object Name for Control
!     ,                        !- Supply Plenum Name
!     ,                        !- Return Plenum Name
!     None,                    !- Baseboard Heating Type
!     ,                        !- Baseboard Heating Availability Schedule Name
!     autosize,                !- Baseboard Heating Capacity {W}
!     SystemSupplyAirTemperature,  !- Zone Cooling Design Supply Air Temperature Input Method
!     ,                        !- Zone Cooling Design Supply Air Temperature {C}
!     ,                        !- Zone Cooling Design Supply Air Temperature Difference {deltaC}
!     SupplyAirTemperature,    !- Zone Heating Design Supply Air Temperature Input Method
!     50.0,                    !- Zone Heating Design Supply Air Temperature {C}
!     ;                        !- Zone Heating Design Supply Air Temperature Difference {deltaC}
! 
!   HVACTemplate:Plant:ChilledWaterLoop,
!     Chilled Water Plant,     !- Name
!     ,                        !- Pump Schedule Name
!     Intermittent,            !- Pump Control Type
!     Default,                 !- Chiller Plant Operation Scheme Type
!     ,                        !- Chiller Plant Equipment Operation Schemes Name
!     ,                        !- Chilled Water Setpoint Schedule Name
!     7.22,                    !- Chilled Water Design Setpoint {C}
!     ConstantPrimaryNoSecondary,  !- Chilled Water Pump Configuration
!     179352,                  !- Primary Chilled Water Pump Rated Head {Pa}
!     179352,                  !- Secondary Chilled Water Pump Rated Head {Pa}
!     Default,                 !- Condenser Plant Operation Scheme Type
!     ,                        !- Condenser Equipment Operation Schemes Name
!     SpecifiedSetpoint,       !- Condenser Water Temperature Control Type
!     ,                        !- Condenser Water Setpoint Schedule Name
!     29.4,                    !- Condenser Water Design Setpoint {C}
!     179352,                  !- Condenser Water Pump Rated Head {Pa}
!     None,                    !- Chilled Water Setpoint Reset Type
!     12.2,                    !- Chilled Water Setpoint at Outdoor Dry-Bulb Low {C}
!     15.6,                    !- Chilled Water Reset Outdoor Dry-Bulb Low {C}
!     6.7,                     !- Chilled Water Setpoint at Outdoor Dry-Bulb High {C}
!     26.7;                    !- Chilled Water Reset Outdoor Dry-Bulb High {C}
! 
!   HVACTemplate:Plant:Chiller,
!     Chiller 1,               !- Name
!     ElectricReciprocatingChiller,  !- Chiller Type
!     autosize,                !- Capacity {W}
!     3.6,                     !- Nominal COP {W/W}
!     WaterCooled,             !- Condenser Type
!     ,                        !- Priority
!     1.0;                     !- Sizing Factor
! 
!   HVACTemplate:Plant:Tower,
!     Tower 1,                 !- Name
!     TwoSpeed,                !- Tower Type
!     autosize,                !- High Speed Nominal Capacity {W}
!     autosize,                !- High Speed Fan Power {W}
!     autosize,                !- Low Speed Nominal Capacity {W}
!     autosize,                !- Low Speed Fan Power {W}
!     autosize,                !- Free Convection Capacity {W}
!     ,                        !- Priority
!     1.0;                     !- Sizing Factor
! 
!   HVACTemplate:Plant:HotWaterLoop,
!     Hot Water Plant,         !- Name
!     ,                        !- Pump Schedule Name
!     Intermittent,            !- Pump Control Type
!     Default,                 !- Hot Water Plant Operation Scheme Type
!     ,                        !- Hot Water Plant Equipment Operation Schemes Name
!     ,                        !- Hot Water Setpoint Schedule Name
!     82,                      !- Hot Water Design Setpoint {C}
!     ConstantFlow,            !- Hot Water Pump Configuration
!     179352,                  !- Hot Water Pump Rated Head {Pa}
!     None,                    !- Hot Water Setpoint Reset Type
!     82.2,                    !- Hot Water Setpoint at Outdoor Dry-Bulb Low {C}
!     -6.7,                    !- Hot Water Reset Outdoor Dry-Bulb Low {C}
!     65.6,                    !- Hot Water Setpoint at Outdoor Dry-Bulb High {C}
!     10;                      !- Hot Water Reset Outdoor Dry-Bulb High {C}
! 
!   HVACTemplate:Plant:Boiler,
!     Boiler 1,                !- Name
!     HotWaterBoiler,          !- Boiler Type
!     autosize,                !- Capacity {W}
!     0.8,                     !- Efficiency
!     NaturalGas,              !- Fuel Type
!     ,                        !- Priority
!     1.0;                     !- Sizing Factor

  Output:Variable,*,Zone Air Terminal VAV Damper Position,Monthly;

  Output:Variable,*,Chiller Evaporator Cooling Rate,Monthly;

  Output:Variable,*,Chiller COP,Monthly;

  Output:Variable,*,Boiler Heating Rate,Monthly;

  Output:Variable,*,Cooling Tower Heat Transfer Rate,Monthly;

  Output:Variable,*,Unitary System Fan Part Load Ratio,Monthly;

  Output:Variable,*,Cooling Coil Runtime Fraction,Monthly;

  Output:Variable,*,Heating Coil Runtime Fraction,Monthly;
! 
!   HVACTemplate:System:Unitary,
!     North Zone Unitary,      !- Name
!     Office HVAC,             !- System Availability Schedule Name
!     NORTH PERIMETER,         !- Control Zone or Thermostat Location Name
!     autosize,                !- Supply Fan Maximum Flow Rate {m3/s}
!     HVACTemplate:System:UnitaryNorth Zone UnitaryContinuousFanSchedule,  !- Supply Fan Operating Mode Schedule Name
!     0.7,                     !- Supply Fan Total Efficiency
!     600,                     !- Supply Fan Delta Pressure {Pa}
!     0.9,                     !- Supply Fan Motor Efficiency
!     1,                       !- Supply Fan Motor in Air Stream Fraction
!     SingleSpeedDX,           !- Cooling Coil Type
!     ,                        !- Cooling Coil Availability Schedule Name
!     ,                        !- Cooling Design Supply Air Temperature {C}
!     autosize,                !- Cooling Coil Gross Rated Total Capacity {W}
!     autosize,                !- Cooling Coil Gross Rated Sensible Heat Ratio
!     3,                       !- Cooling Coil Gross Rated COP {W/W}
!     Gas,                     !- Heating Coil Type
!     ,                        !- Heating Coil Availability Schedule Name
!     ,                        !- Heating Design Supply Air Temperature {C}
!     autosize,                !- Heating Coil Capacity {W}
!     0.8,                     !- Gas Heating Coil Efficiency
!     ,                        !- Gas Heating Coil Parasitic Electric Load {W}
!     autosize,                !- Maximum Outdoor Air Flow Rate {m3/s}
!     autosize,                !- Minimum Outdoor Air Flow Rate {m3/s}
!     Office Minimum OA,       !- Minimum Outdoor Air Schedule Name
!     NoEconomizer,            !- Economizer Type
!     NoLockout,               !- Economizer Lockout
!     ,                        !- Economizer Upper Temperature Limit {C}
!     ,                        !- Economizer Lower Temperature Limit {C}
!     ,                        !- Economizer Upper Enthalpy Limit {J/kg}
!     ,                        !- Economizer Maximum Limit Dewpoint Temperature {C}
!     ,                        !- Supply Plenum Name
!     ,                        !- Return Plenum Name
!     BlowThrough,             !- Supply Fan Placement
!     StayOff,                 !- Night Cycle Control
!     ,                        !- Night Cycle Control Zone Name
!     None,                    !- Heat Recovery Type
!     0.7,                     !- Sensible Heat Recovery Effectiveness
!     0.65,                    !- Latent Heat Recovery Effectiveness
!     ,                        !- Dehumidification Control Type
!     ,                        !- Dehumidification Setpoint {percent}
!     ,                        !- Humidifier Type
!     ,                        !- Humidifier Availability Schedule Name
!     ,                        !- Humidifier Rated Capacity {m3/s}
!     ,                        !- Humidifier Rated Electric Power {W}
!     ,                        !- Humidifier Control Zone Name
!     ,                        !- Humidifier Setpoint {percent}
!     ,                        !- Return Fan
!     ,                        !- Return Fan Total Efficiency
!     ,                        !- Return Fan Delta Pressure {Pa}
!     ,                        !- Return Fan Motor Efficiency
!     ;                        !- Return Fan Motor in Air Stream Fraction

  Schedule:Constant,HVACTemplate:System:UnitaryNorth Zone UnitaryContinuousFanSchedule,Any Number,1;

  Sizing:Parameters,
    1.2,                     !- Heating Sizing Factor
    1.2;                     !- Cooling Sizing Factor
! 
!   HVACTemplate:Thermostat,
!     Office Thermostat,       !- Name
!     Office Heating Setpoints,!- Heating Setpoint Schedule Name
!     ,                        !- Constant Heating Setpoint {C}
!     Office Cooling Setpoints,!- Cooling Setpoint Schedule Name
!     ;                        !- Constant Cooling Setpoint {C}
! 
!   HVACTemplate:Zone:Unitary,
!     NORTH PERIMETER,         !- Zone Name
!     North Zone Unitary,      !- Template Unitary System Name
!     Office Thermostat,       !- Template Thermostat Name
!     autosize,                !- Supply Air Maximum Flow Rate {m3/s}
!     ,                        !- Zone Heating Sizing Factor
!     ,                        !- Zone Cooling Sizing Factor
!     Flow/Person,             !- Outdoor Air Method
!     0.00944,                 !- Outdoor Air Flow Rate per Person {m3/s}
!     0.0,                     !- Outdoor Air Flow Rate per Zone Floor Area {m3/s-m2}
!     0.0,                     !- Outdoor Air Flow Rate per Zone {m3/s}
!     ,                        !- Supply Plenum Name
!     ,                        !- Return Plenum Name
!     None,                    !- Baseboard Heating Type
!     ,                        !- Baseboard Heating Availability Schedule Name
!     autosize,                !- Baseboard Heating Capacity {W}
!     SystemSupplyAirTemperature,  !- Zone Cooling Design Supply Air Temperature Input Method
!     ,                        !- Zone Cooling Design Supply Air Temperature {C}
!     ,                        !- Zone Cooling Design Supply Air Temperature Difference {deltaC}
!     SystemSupplyAirTemperature,  !- Zone Heating Design Supply Air Temperature Input Method
!     ,                        !- Zone Heating Design Supply Air Temperature {C}
!     ;                        !- Zone Heating Design Supply Air Temperature Difference {deltaC}

! Introduction to EnergyPlus - Exercise 2C
!
! Building: Single floor rectangular building 30.5 m (100 ft) x 15.2 m (50 ft). 5 zones -
!           4 exterior, 1 interior, zone height 2.4 m (8 ft). Exterior zone
!           depth is 3.7 m (12 ft). There is a 0.6 m (2 ft) high return plenum. The
!           overall building height is 3m (10 ft). There are windows on
!           all 4 facades; the south and north facades have glass doors.
!           The south facing glass is shaded by overhangs. The walls
!           are woodshingle over plywood, R11 insulation, and gypboard.
!           The roof is a gravel built up roof with mineral board
!           insulation and plywood sheathing. The floor slab is 0.1 m (4 in)
!           of heavy concrete. The windows and glass doors are double
!           pane Low-e clear glass with argon gap. The window to wall ratio is
!           approximately 0.3.
!
!           The building is oriented with the long axis running east-west.
!
! Floor Area:        463.6 m2 (5000 ft2)
!
! Internal: Lighting is 16 W/m2 (1.5 W/ft2), office equip is 10.8 W/m2 (1.0 W/ft2).
!           1 occupant per 9.3 m2 (100 ft2) of floor area. The
!           Infiltration is 0.25 air changes per hour.
!
! HVAC:     Single-zone unitary with DX cooling and gas heating serving NORTH PERIMETER zone.
!           VAV with hot water reheat, return plenum, chiller, boiler, and tower serving
!           the other four occupied zones.
!
! Environment:  Chicago, IL, USA, TMY2
!
!

  Version,9.5;

  Building,
    Exercise 2C,             !- Name
    0.0,                     !- North Axis {deg}
    City,                    !- Terrain
    0.04,                    !- Loads Convergence Tolerance Value {W}
    0.4,                     !- Temperature Convergence Tolerance Value {deltaC}
    FullInteriorAndExterior, !- Solar Distribution
    ,                        !- Maximum Number of Warmup Days
    6;                       !- Minimum Number of Warmup Days

  Timestep,4;

  SurfaceConvectionAlgorithm:Inside,Simple;

  SurfaceConvectionAlgorithm:Outside,SimpleCombined;

  HeatBalanceAlgorithm,ConductionTransferFunction;

  ZoneCapacitanceMultiplier:ResearchSpecial,
    Multiplier,              !- Name
    ,                        !- Zone or ZoneList Name
    1.0,                     !- Temperature Capacity Multiplier
    1.0,                     !- Humidity Capacity Multiplier
    1.0,                     !- Carbon Dioxide Capacity Multiplier
    1.0;                     !- Generic Contaminant Capacity Multiplier

  SimulationControl,
    Yes,                     !- Do Zone Sizing Calculation
    Yes,                     !- Do System Sizing Calculation
    Yes,                     !- Do Plant Sizing Calculation
    No,                      !- Run Simulation for Sizing Periods
    Yes,                     !- Run Simulation for Weather File Run Periods
    No,                      !- Do HVAC Sizing Simulation for Sizing Periods
    1;                       !- Maximum Number of HVAC Sizing Simulation Passes

  RunPeriod,
    Run Period 1,            !- Name
    1,                       !- Begin Month
    1,                       !- Begin Day of Month
    ,                        !- Begin Year
    12,                      !- End Month
    31,                      !- End Day of Month
    ,                        !- End Year
    Sunday,                  !- Day of Week for Start Day
    Yes,                     !- Use Weather File Holidays and Special Days
    Yes,                     !- Use Weather File Daylight Saving Period
    No,                      !- Apply Weekend Holiday Rule
    Yes,                     !- Use Weather File Rain Indicators
    Yes;                     !- Use Weather File Snow Indicators

  Site:Location,
    CHICAGO_IL_USA TMY2-94846,  !- Name
    41.78,                   !- Latitude {deg}
    -87.75,                  !- Longitude {deg}
    -6.00,                   !- Time Zone {hr}
    190.00;                  !- Elevation {m}

! CHICAGO_IL_USA Heating 99%, MaxDB= -18.10°C

  SizingPeriod:DesignDay,
    CHICAGO_IL_USA Heating 99% Conditions,  !- Name
    1,                       !- Month
    21,                      !- Day of Month
    WinterDesignDay,         !- Day Type
    -18.10,                  !- Maximum Dry-Bulb Temperature {C}
    0.00,                    !- Daily Dry-Bulb Temperature Range {deltaC}
    ,                        !- Dry-Bulb Temperature Range Modifier Type
    ,                        !- Dry-Bulb Temperature Range Modifier Day Schedule Name
    Wetbulb,                 !- Humidity Condition Type
    -18.10,                  !- Wetbulb or DewPoint at Maximum Dry-Bulb {C}
    ,                        !- Humidity Condition Day Schedule Name
    ,                        !- Humidity Ratio at Maximum Dry-Bulb {kgWater/kgDryAir}
    ,                        !- Enthalpy at Maximum Dry-Bulb {J/kg}
    ,                        !- Daily Wet-Bulb Temperature Range {deltaC}
    99063.,                  !- Barometric Pressure {Pa}
    4.60,                    !- Wind Speed {m/s}
    270.00,                  !- Wind Direction {deg}
    No,                      !- Rain Indicator
    No,                      !- Snow Indicator
    No,                      !- Daylight Saving Time Indicator
    ASHRAEClearSky,          !- Solar Model Indicator
    ,                        !- Beam Solar Day Schedule Name
    ,                        !- Diffuse Solar Day Schedule Name
    ,                        !- ASHRAE Clear Sky Optical Depth for Beam Irradiance (taub) {dimensionless}
    ,                        !- ASHRAE Clear Sky Optical Depth for Diffuse Irradiance (taud) {dimensionless}